{
    "info": {
        "author": "",
        "author_email": "",
        "bugtrack_url": null,
        "classifiers": [
            "Development Status :: 3 - Alpha",
            "Operating System :: Microsoft :: Windows",
            "Operating System :: POSIX :: Linux",
            "Programming Language :: C++",
            "Programming Language :: Python :: 3.5",
            "Programming Language :: Python :: 3.6",
            "Programming Language :: Python :: 3.7"
        ],
        "description": "# lsreader - A reader to extract LS-DYNA results\n\n\n",
        "description_content_type": "",
        "docs_url": null,
        "download_url": "",
        "downloads": {
            "last_day": -1,
            "last_month": -1,
            "last_week": -1
        },
        "home_page": "",
        "keywords": "ls-dyna,d3plot",
        "license": "",
        "maintainer": "",
        "maintainer_email": "",
        "name": "try-reader",
        "package_url": "https://pypi.org/project/try-reader/",
        "platform": "",
        "project_url": "https://pypi.org/project/try-reader/",
        "project_urls": null,
        "release_url": "https://pypi.org/project/try-reader/0.0.1/",
        "requires_dist": null,
        "requires_python": "",
        "summary": "A reader to extract LS-DYNA results",
        "version": "0.0.1"
    },
    "last_serial": 5734144,
    "releases": {
        "0.0.1": [
            {
                "comment_text": "",
                "digests": {
                    "md5": "dad8b2d5f9d99a1008171a553f3b10c0",
                    "sha256": "e661e0a863b374f16f8a9d1a586ed0e53f4a333522397b5f2eac263dd26b4786"
                },
                "downloads": -1,
                "filename": "try_reader-0.0.1-cp35-cp35m-manylinux2010_x86_64.whl",
                "has_sig": false,
                "md5_digest": "dad8b2d5f9d99a1008171a553f3b10c0",
                "packagetype": "bdist_wheel",
                "python_version": "cp35",
                "requires_python": null,
                "size": 922735,
                "upload_time": "2019-08-27T03:09:34",
                "url": "https://files.pythonhosted.org/packages/45/d6/05693b62a64bc1ce60c2c44cb6ffa396ac5946ff996ace5a483a96fbcd75/try_reader-0.0.1-cp35-cp35m-manylinux2010_x86_64.whl"
            }
        ]
    },
    "urls": [
        {
            "comment_text": "",
            "digests": {
                "md5": "dad8b2d5f9d99a1008171a553f3b10c0",
                "sha256": "e661e0a863b374f16f8a9d1a586ed0e53f4a333522397b5f2eac263dd26b4786"
            },
            "downloads": -1,
            "filename": "try_reader-0.0.1-cp35-cp35m-manylinux2010_x86_64.whl",
            "has_sig": false,
            "md5_digest": "dad8b2d5f9d99a1008171a553f3b10c0",
            "packagetype": "bdist_wheel",
            "python_version": "cp35",
            "requires_python": null,
            "size": 922735,
            "upload_time": "2019-08-27T03:09:34",
            "url": "https://files.pythonhosted.org/packages/45/d6/05693b62a64bc1ce60c2c44cb6ffa396ac5946ff996ace5a483a96fbcd75/try_reader-0.0.1-cp35-cp35m-manylinux2010_x86_64.whl"
        }
    ]
}